REMARK  Name = 
REMARK  8 active torsions:
REMARK  status: ('A' for Active; 'I' for Inactive)
REMARK    1  A    between atoms: C_1  and  O_2
REMARK    2  A    between atoms: O_2  and  C_3
REMARK    3  A    between atoms: C_4  and  O_22
REMARK    4  A    between atoms: N_13  and  C_14
REMARK    5  A    between atoms: O_22  and  C_23
REMARK    6  A    between atoms: C_23  and  C_24
REMARK    7  A    between atoms: C_24  and  C_25
REMARK    8  A    between atoms: C_25  and  N_26
REMARK                            x       y       z     vdW  Elec       q    Type
REMARK                         _______ _______ _______ _____ _____    ______ ____
ROOT
ATOM      1  C   UNL     1       2.283  -2.684  -2.016  0.00  0.00    +0.164 A 
ATOM      2  C   UNL     1       2.807  -1.574  -2.672  0.00  0.00    +0.163 A 
ATOM      3  C   UNL     1       3.121  -1.692  -4.028  0.00  0.00    +0.062 A 
ATOM      4  C   UNL     1       2.848  -2.884  -4.752  0.00  0.00    +0.044 A 
ATOM      5  C   UNL     1       2.235  -3.956  -4.091  0.00  0.00    +0.080 A 
ATOM      6  C   UNL     1       1.970  -3.843  -2.735  0.00  0.00    +0.078 A 
ATOM      7  N   UNL     1       1.894  -5.090  -4.703  0.00  0.00    -0.235 NA
ATOM      8  C   UNL     1       2.172  -5.173  -6.008  0.00  0.00    +0.223 A 
ATOM      9  N   UNL     1       2.764  -4.230  -6.744  0.00  0.00    -0.220 NA
ATOM     10  C   UNL     1       3.125  -3.096  -6.118  0.00  0.00    +0.134 A 
ATOM     11  N   UNL     1       3.800  -2.096  -6.855  0.00  0.00    -0.299 N 
ATOM     12  H   UNL     1       4.579  -1.704  -6.340  0.00  0.00    +0.154 HD
ENDROOT
BRANCH  11  13
ATOM     13  C   UNL     1       3.876  -1.896  -8.247  0.00  0.00    +0.034 A 
ATOM     14  C   UNL     1       4.949  -1.157  -8.773  0.00  0.00    +0.046 A 
ATOM     15  C   UNL     1       5.055  -0.929 -10.148  0.00  0.00    +0.078 A 
ATOM     16  C   UNL     1       4.083  -1.423 -11.011  0.00  0.00    +0.142 A 
ATOM     17  C   UNL     1       3.004  -2.140 -10.512  0.00  0.00    +0.041 A 
ATOM     18  C   UNL     1       2.901  -2.370  -9.136  0.00  0.00    +0.026 A 
ATOM     19  F   UNL     1       4.164  -1.212 -12.332  0.00  0.00    -0.204 F 
ATOM     20 CL   UNL     1       6.394  -0.031 -10.753  0.00  0.00    -0.081 Cl
ENDBRANCH  11  13
BRANCH   1  22
ATOM     21  C   UNL     1       3.079  -3.327   0.032  0.00  0.00    +0.277 C 
ATOM     22  O   UNL     1       2.014  -2.675  -0.673  0.00  0.00    -0.491 OA
ENDBRANCH   1  22
BRANCH   2  23
ATOM     23  O   UNL     1       3.083  -0.348  -2.134  0.00  0.00    -0.488 OA
BRANCH  23  24
ATOM     24  C   UNL     1       2.207   0.161  -1.124  0.00  0.00    +0.234 C 
BRANCH  24  25
ATOM     25  C   UNL     1       0.789   0.385  -1.650  0.00  0.00    +0.092 C 
BRANCH  25  26
ATOM     26  C   UNL     1      -0.196   0.922  -0.618  0.00  0.00    +0.134 C 
BRANCH  26  27
ATOM     27  N   UNL     1      -0.869  -0.111   0.257  0.00  0.00    +0.239 N 
ATOM     28  C   UNL     1      -1.494  -1.295  -0.479  0.00  0.00    +0.160 C 
ATOM     29  C   UNL     1      -2.327  -2.120   0.511  0.00  0.00    +0.210 C 
ATOM     30  O   UNL     1      -1.528  -2.561   1.616  0.00  0.00    -0.369 OA
ATOM     31  C   UNL     1      -0.960  -1.467   2.345  0.00  0.00    +0.210 C 
ATOM     32  C   UNL     1      -0.058  -0.612   1.444  0.00  0.00    +0.160 C 
ATOM     33  H   UNL     1      -1.663   0.393   0.675  0.00  0.00    +0.203 HD
ENDBRANCH  26  27
ENDBRANCH  25  26
ENDBRANCH  24  25
ENDBRANCH  23  24
ENDBRANCH   2  23
TORSDOF 7
